Circuit: * C:\Users\thollis\Google Drive\Lithium Ion Pack\Op_Amp_Simulation.asc

Direct Newton iteration failed to find .op point.  (Use ".option noopiter" to skip.)
Starting Gmin stepping
Gmin = 10
Gmin = 1.07374
Gmin = 0.115292
Gmin = 0.0123794
Gmin = 0.00132923
Gmin = 0.000142725
Gmin = 1.5325e-005
Gmin = 1.6455e-006
Gmin = 1.76685e-007
Gmin = 1.89714e-008
Gmin = 2.03704e-009
Gmin = 2.18725e-010
Gmin = 2.34854e-011
Gmin = 2.52173e-012
Gmin = 2.70769e-013
Gmin = 0
Gmin stepping succeeded in finding the operating point.


Date: Tue Aug 24 15:18:46 2021
Total elapsed time: 2.045 seconds.

tnom = 27
temp = 27
method = modified trap
totiter = 112302
traniter = 111923
tranpoints = 55720
accept = 44877
rejected = 10843
matrix size = 54
fillins = 60
solver = Normal
Thread vector: 5.7/3.6[2] 1.4/1.5[1] 0.1/0.8[1] 0.2/1.0[1]  2592/500
Matrix Compiler1: 4.30 KB object code size  0.8/0.4/[0.2]
Matrix Compiler2: 6.27 KB object code size  0.5/0.6/[0.3]

